<?xml version="1.0" encoding="ISO-8859-1"?>
<febio_spec version="4.0">
	<Module type="solid"/>
	<Globals>
		<Constants>
			<T>0</T>
			<P>0</P>
			<R>8.31446</R>
			<Fc>96485.3</Fc>
		</Constants>
	</Globals>
	<Material>
		<material id="1" name="Inclusion" type="prestress material">
			<density>1</density>
			<prestress lc="1">1</prestress>
			<isochoric>0</isochoric>
			<secant_tangent>1</secant_tangent>
			<elastic type="coupled Mooney-Rivlin">
				<c1>0.1</c1>
				<c2>0</c2>
				<k>100</k>
			</elastic>
		</material>
		<material id="2" name="Matrix" type="prestress material">
			<density>1</density>
			<prestress lc="1">1</prestress>
			<isochoric>0</isochoric>
			<secant_tangent>1</secant_tangent>
			<elastic type="coupled Mooney-Rivlin">
				<c1>0.5</c1>
				<c2>0</c2>
				<k>500</k>
			</elastic>
		</material>
	</Material>
	<Mesh>
		<Nodes name="1836_model">
			<node id="1">0.0383462943,0,-0.0923556238</node>
			<node id="2">0.0303438976,0,-0.0601620451</node>
			<node id="3">0.0708178952,0,-0.0706032962</node>
			<node id="4">0.0538794808,0,-0.0537274219</node>
			<node id="5">0.0383486003,0.0305642094,-0.0923546702</node>
			<node id="6">0.0303428639,0.0305642094,-0.0601631887</node>
			<node id="7">0.070813328,0.0305642094,-0.0706078857</node>
			<node id="8">0.0538772121,0.0305642094,-0.0537297577</node>
			<node id="9">0.0924744755,0,-0.038058795</node>
			<node id="10">0.0602396056,0,-0.0302158277</node>
			<node id="11">0.0924740806,0.0305642094,-0.0380597487</node>
			<node id="12">0.060238421,0.0305642094,-0.0302170776</node>
			<node id="13">0.0305033065,0,-0.0304486677</node>
			<node id="14">0.0305027552,0.0305642094,-0.0304492638</node>
			<node id="15">0.0658667013,0,0</node>
			<node id="16">0.100000001,0,0</node>
			<node id="17">0.0658667013,0.0305642094,0</node>
			<node id="18">0.100000001,0.0305642094,0</node>
			<node id="19">0.0317333005,0,0</node>
			<node id="20">0.0317333005,0.0305642094,0</node>
<!-- ... 2640 like lines cut -->
		</Nodes>
		<Elements type="hex8" name="Part1">
			<elem id="1402">2077,2078,2080,2079,2081,2082,2084,2083</elem>
			<elem id="1403">2079,2085,2086,2077,2083,2087,2088,2081</elem>
			<elem id="1404">2089,2090,2085,2079,2091,2092,2087,2083</elem>
			<elem id="1405">2093,2089,2079,2080,2094,2091,2083,2084</elem>
			<elem id="1406">2095,2093,2080,2078,2096,2094,2084,2082</elem>
			<elem id="1407">2097,2098,2086,2085,2099,2100,2088,2087</elem>
			<elem id="1408">2101,2102,2097,2085,2103,2104,2099,2087</elem>
			<elem id="1409">2105,2101,2085,2090,2106,2103,2087,2092</elem>
			<elem id="1410">2107,2108,2095,2078,2109,2110,2096,2082</elem>
			<elem id="1411">2111,2107,2078,2077,2112,2109,2082,2081</elem>
			<elem id="1412">2113,2111,2077,2086,2114,2112,2081,2088</elem>
			<elem id="1413">2115,2113,2086,2098,2116,2114,2088,2100</elem>
			<elem id="1414">2117,2118,2105,2090,2119,2120,2106,2092</elem>
			<elem id="1415">2121,2117,2090,2089,2122,2119,2092,2091</elem>
			<elem id="1416">2123,2121,2089,2093,2124,2122,2091,2094</elem>
			<elem id="1417">2125,2123,2093,2095,2126,2124,2094,2096</elem>
			<elem id="1418">2127,2125,2095,2108,2128,2126,2096,2110</elem>
			<elem id="1419">2129,2130,2115,2098,2131,2132,2116,2100</elem>
			<elem id="1420">2133,2129,2098,2097,2134,2131,2100,2099</elem>
			<elem id="1421">2135,2133,2097,2102,2136,2134,2099,2104</elem>
<!-- ... 415 like lines cut -->
		</Elements>
		<Elements type="hex8" name="Part2">
			<elem id="1837">2049,2050,2052,2051,2053,2054,2056,2055</elem>
			<elem id="1838">2057,2051,2052,2058,2059,2055,2056,2060</elem>
			<elem id="1839">2061,2058,2052,2050,2062,2060,2056,2054</elem>
			<elem id="1840">785,787,2061,2050,786,788,2062,2054</elem>
			<elem id="1841">749,785,2050,2049,579,786,2054,2053</elem>
			<elem id="1842">25,27,2057,2058,26,28,2059,2060</elem>
			<elem id="1843">21,25,2058,2061,23,26,2060,2062</elem>
			<elem id="1844">22,21,2061,787,24,23,2062,788</elem>
			<elem id="1845">2053,2054,2056,2055,2063,2064,2066,2065</elem>
			<elem id="1846">2059,2055,2056,2060,2067,2065,2066,2068</elem>
			<elem id="1847">2062,2060,2056,2054,2069,2068,2066,2064</elem>
			<elem id="1848">786,788,2062,2054,793,794,2069,2064</elem>
			<elem id="1849">579,786,2054,2053,382,793,2064,2063</elem>
			<elem id="1850">26,28,2059,2060,41,42,2067,2068</elem>
			<elem id="1851">23,26,2060,2062,39,41,2068,2069</elem>
			<elem id="1852">24,23,2062,788,40,39,2069,794</elem>
			<elem id="1853">2063,2064,2066,2065,2070,2071,2073,2072</elem>
			<elem id="1854">2067,2065,2066,2068,2074,2072,2073,2075</elem>
			<elem id="1855">2069,2068,2066,2064,2076,2075,2073,2071</elem>
			<elem id="1856">793,794,2069,2064,799,800,2076,2071</elem>
<!-- ... 4 like lines cut -->
		</Elements>
		<Elements type="hex8" name="Part3">
			<elem id="1861">97,98,100,99,101,102,104,103</elem>
			<elem id="1862">99,105,106,97,103,107,108,101</elem>
			<elem id="1863">109,110,100,98,111,112,104,102</elem>
			<elem id="1864">113,109,98,97,114,111,102,101</elem>
			<elem id="1865">115,113,97,106,116,114,101,108</elem>
			<elem id="1866">117,118,106,105,119,120,108,107</elem>
			<elem id="1867">121,122,115,106,123,124,116,108</elem>
			<elem id="1868">125,121,106,118,126,123,108,120</elem>
			<elem id="1869">127,128,110,109,129,130,112,111</elem>
			<elem id="1870">131,127,109,113,132,129,111,114</elem>
			<elem id="1871">133,131,113,115,134,132,114,116</elem>
			<elem id="1872">135,133,115,122,136,134,116,124</elem>
			<elem id="1873">137,138,117,105,139,140,119,107</elem>
			<elem id="1874">141,137,105,99,142,139,107,103</elem>
			<elem id="1875">143,141,99,100,144,142,103,104</elem>
			<elem id="1876">145,143,100,110,146,144,104,112</elem>
			<elem id="1877">147,145,110,128,148,146,112,130</elem>
			<elem id="1878">149,150,125,118,151,152,126,120</elem>
			<elem id="1879">153,149,118,117,154,151,120,119</elem>
			<elem id="1880">155,153,117,138,156,154,119,140</elem>
<!-- ... 415 like lines cut -->
		</Elements>
		<Elements type="hex8" name="Part4">
			<elem id="2296">1465,1466,1468,1467,1469,1470,1472,1471</elem>
			<elem id="2297">1467,1473,1474,1465,1471,1475,1476,1469</elem>
			<elem id="2298">1477,1478,1468,1466,1479,1480,1472,1470</elem>
			<elem id="2299">1481,1477,1466,1465,1482,1479,1470,1469</elem>
			<elem id="2300">1483,1481,1465,1474,1484,1482,1469,1476</elem>
			<elem id="2301">1485,1486,1474,1473,1487,1488,1476,1475</elem>
			<elem id="2302">1489,1490,1483,1474,1491,1492,1484,1476</elem>
			<elem id="2303">1493,1489,1474,1486,1494,1491,1476,1488</elem>
			<elem id="2304">1495,1496,1478,1477,1497,1498,1480,1479</elem>
			<elem id="2305">1499,1495,1477,1481,1500,1497,1479,1482</elem>
			<elem id="2306">1501,1499,1481,1483,1502,1500,1482,1484</elem>
			<elem id="2307">1503,1501,1483,1490,1504,1502,1484,1492</elem>
			<elem id="2308">1505,1506,1485,1473,1507,1508,1487,1475</elem>
			<elem id="2309">1509,1505,1473,1467,1510,1507,1475,1471</elem>
			<elem id="2310">1511,1509,1467,1468,1512,1510,1471,1472</elem>
			<elem id="2311">1513,1511,1468,1478,1514,1512,1472,1480</elem>
			<elem id="2312">1515,1513,1478,1496,1516,1514,1480,1498</elem>
			<elem id="2313">1517,1518,1493,1486,1519,1520,1494,1488</elem>
			<elem id="2314">1521,1517,1486,1485,1522,1519,1488,1487</elem>
			<elem id="2315">1523,1521,1485,1506,1524,1522,1487,1508</elem>
<!-- ... 415 like lines cut -->
		</Elements>
		<Elements type="hex8" name="Part5">
			<elem id="2731">801,802,804,803,805,806,808,807</elem>
			<elem id="2732">803,809,810,801,807,811,812,805</elem>
			<elem id="2733">813,814,809,803,815,816,811,807</elem>
			<elem id="2734">817,813,803,804,818,815,807,808</elem>
			<elem id="2735">819,817,804,802,820,818,808,806</elem>
			<elem id="2736">821,822,810,809,823,824,812,811</elem>
			<elem id="2737">825,826,821,809,827,828,823,811</elem>
			<elem id="2738">829,825,809,814,830,827,811,816</elem>
			<elem id="2739">831,832,819,802,833,834,820,806</elem>
			<elem id="2740">835,831,802,801,836,833,806,805</elem>
			<elem id="2741">837,835,801,810,838,836,805,812</elem>
			<elem id="2742">839,837,810,822,840,838,812,824</elem>
			<elem id="2743">841,842,829,814,843,844,830,816</elem>
			<elem id="2744">845,841,814,813,846,843,816,815</elem>
			<elem id="2745">847,845,813,817,848,846,815,818</elem>
			<elem id="2746">849,847,817,819,850,848,818,820</elem>
			<elem id="2747">851,849,819,832,852,850,820,834</elem>
			<elem id="2748">853,854,839,822,855,856,840,824</elem>
			<elem id="2749">857,853,822,821,858,855,824,823</elem>
			<elem id="2750">859,857,821,826,860,858,823,828</elem>
<!-- ... 415 like lines cut -->
		</Elements>
		<Elements type="hex8" name="Part6">
			<elem id="3166">746,777,778,747,576,779,780,577</elem>
			<elem id="3167">748,747,778,781,578,577,780,782</elem>
			<elem id="3168">783,781,778,777,784,782,780,779</elem>
			<elem id="3169">785,749,748,781,786,579,578,782</elem>
			<elem id="3170">787,785,781,783,788,786,782,784</elem>
			<elem id="3171">75,22,787,783,76,24,788,784</elem>
			<elem id="3172">71,75,783,777,73,76,784,779</elem>
			<elem id="3173">72,71,777,746,74,73,779,576</elem>
			<elem id="3174">576,779,780,577,376,789,790,378</elem>
			<elem id="3175">578,577,780,782,380,378,790,791</elem>
			<elem id="3176">784,782,780,779,792,791,790,789</elem>
			<elem id="3177">786,579,578,782,793,382,380,791</elem>
			<elem id="3178">788,786,782,784,794,793,791,792</elem>
			<elem id="3179">76,24,788,784,86,40,794,792</elem>
			<elem id="3180">73,76,784,779,84,86,792,789</elem>
			<elem id="3181">74,73,779,576,85,84,789,376</elem>
			<elem id="3182">376,789,790,378,375,795,796,377</elem>
			<elem id="3183">380,378,790,791,379,377,796,797</elem>
			<elem id="3184">792,791,790,789,798,797,796,795</elem>
			<elem id="3185">793,382,380,791,799,381,379,797</elem>
<!-- ... 4 like lines cut -->
		</Elements>
		<Elements type="hex8" name="Part7">
			<elem id="3190">1,2,4,3,5,6,8,7</elem>
			<elem id="3191">9,3,4,10,11,7,8,12</elem>
			<elem id="3192">13,10,4,2,14,12,8,6</elem>
			<elem id="3193">15,16,9,10,17,18,11,12</elem>
			<elem id="3194">19,15,10,13,20,17,12,14</elem>
			<elem id="3195">21,22,19,13,23,24,20,14</elem>
			<elem id="3196">25,21,13,2,26,23,14,6</elem>
			<elem id="3197">27,25,2,1,28,26,6,5</elem>
			<elem id="3198">5,6,8,7,29,30,32,31</elem>
			<elem id="3199">11,7,8,12,33,31,32,34</elem>
			<elem id="3200">14,12,8,6,35,34,32,30</elem>
			<elem id="3201">17,18,11,12,36,37,33,34</elem>
			<elem id="3202">20,17,12,14,38,36,34,35</elem>
			<elem id="3203">23,24,20,14,39,40,38,35</elem>
			<elem id="3204">26,23,14,6,41,39,35,30</elem>
			<elem id="3205">28,26,6,5,42,41,30,29</elem>
			<elem id="3206">29,30,32,31,43,44,46,45</elem>
			<elem id="3207">33,31,32,34,47,45,46,48</elem>
			<elem id="3208">35,34,32,30,49,48,46,44</elem>
			<elem id="3209">36,37,33,34,50,51,47,48</elem>
<!-- ... 4 like lines cut -->
		</Elements>
		<Elements type="hex8" name="Part8">
			<elem id="3214">57,58,60,59,61,62,64,63</elem>
			<elem id="3215">65,59,60,66,67,63,64,68</elem>
			<elem id="3216">69,66,60,58,70,68,64,62</elem>
			<elem id="3217">71,72,65,66,73,74,67,68</elem>
			<elem id="3218">75,71,66,69,76,73,68,70</elem>
			<elem id="3219">19,22,75,69,20,24,76,70</elem>
			<elem id="3220">15,19,69,58,17,20,70,62</elem>
			<elem id="3221">16,15,58,57,18,17,62,61</elem>
			<elem id="3222">61,62,64,63,77,78,80,79</elem>
			<elem id="3223">67,63,64,68,81,79,80,82</elem>
			<elem id="3224">70,68,64,62,83,82,80,78</elem>
			<elem id="3225">73,74,67,68,84,85,81,82</elem>
			<elem id="3226">76,73,68,70,86,84,82,83</elem>
			<elem id="3227">20,24,76,70,38,40,86,83</elem>
			<elem id="3228">17,20,70,62,36,38,83,78</elem>
			<elem id="3229">18,17,62,61,37,36,78,77</elem>
			<elem id="3230">77,78,80,79,87,88,90,89</elem>
			<elem id="3231">81,79,80,82,91,89,90,92</elem>
			<elem id="3232">83,82,80,78,93,92,90,88</elem>
			<elem id="3233">84,85,81,82,94,95,91,92</elem>
<!-- ... 4 like lines cut -->
		</Elements>
		<Surface name="OCT_Cut">
			<quad4 id="1">2057,27,28,2059</quad4>
			<quad4 id="2">2051,2057,2059,2055</quad4>
			<quad4 id="3">2049,2051,2055,2053</quad4>
			<quad4 id="4">749,2049,2053,579</quad4>
			<quad4 id="5">2059,28,42,2067</quad4>
			<quad4 id="6">2055,2059,2067,2065</quad4>
			<quad4 id="7">2053,2055,2065,2063</quad4>
			<quad4 id="8">579,2053,2063,382</quad4>
			<quad4 id="9">2067,42,56,2074</quad4>
			<quad4 id="10">2065,2067,2074,2072</quad4>
			<quad4 id="11">2063,2065,2072,2070</quad4>
			<quad4 id="12">382,2063,2070,381</quad4>
			<quad4 id="13">375,95,85,376</quad4>
			<quad4 id="14">377,375,376,378</quad4>
			<quad4 id="15">379,377,378,380</quad4>
			<quad4 id="16">381,379,380,382</quad4>
			<quad4 id="17">376,85,74,576</quad4>
			<quad4 id="18">378,376,576,577</quad4>
			<quad4 id="19">380,378,577,578</quad4>
			<quad4 id="20">382,380,578,579</quad4>
<!-- ... 28 like lines cut -->
		</Surface>
		<Surface name="ZeroDisplacement_Z">
			<quad4 id="1">1079,1080,1082,1081</quad4>
			<quad4 id="2">1083,1079,1081,1084</quad4>
			<quad4 id="3">1085,1083,1084,1086</quad4>
			<quad4 id="4">1087,1085,1086,1088</quad4>
			<quad4 id="5">1089,1087,1088,1090</quad4>
			<quad4 id="6">1091,1089,1090,1092</quad4>
			<quad4 id="7">1093,1091,1092,1094</quad4>
			<quad4 id="8">1095,1093,1094,1096</quad4>
			<quad4 id="9">1097,1095,1096,1098</quad4>
			<quad4 id="10">1099,1097,1098,1100</quad4>
			<quad4 id="11">1101,1099,1100,1102</quad4>
			<quad4 id="12">1103,1101,1102,1104</quad4>
			<quad4 id="13">1106,1103,1104,1108</quad4>
			<quad4 id="14">1081,1082,1273,1272</quad4>
			<quad4 id="15">1084,1081,1272,1274</quad4>
			<quad4 id="16">1086,1084,1274,1275</quad4>
			<quad4 id="17">1088,1086,1275,1276</quad4>
			<quad4 id="18">1090,1088,1276,1277</quad4>
			<quad4 id="19">1092,1090,1277,1278</quad4>
			<quad4 id="20">1094,1092,1278,1279</quad4>
<!-- ... 58 like lines cut -->
		</Surface>
		<Surface name="ZeroDisplacement_X">
			<quad4 id="1">409,410,412,411</quad4>
			<quad4 id="2">413,409,411,414</quad4>
			<quad4 id="3">415,413,414,416</quad4>
			<quad4 id="4">417,415,416,418</quad4>
			<quad4 id="5">419,417,418,420</quad4>
			<quad4 id="6">421,419,420,422</quad4>
			<quad4 id="7">423,421,422,424</quad4>
			<quad4 id="8">425,423,424,426</quad4>
			<quad4 id="9">427,425,426,428</quad4>
			<quad4 id="10">429,427,428,430</quad4>
			<quad4 id="11">431,429,430,432</quad4>
			<quad4 id="12">433,431,432,434</quad4>
			<quad4 id="13">435,433,434,436</quad4>
			<quad4 id="14">411,412,594,593</quad4>
			<quad4 id="15">414,411,593,595</quad4>
			<quad4 id="16">416,414,595,596</quad4>
			<quad4 id="17">418,416,596,597</quad4>
			<quad4 id="18">420,418,597,598</quad4>
			<quad4 id="19">422,420,598,599</quad4>
			<quad4 id="20">424,422,599,600</quad4>
<!-- ... 58 like lines cut -->
		</Surface>
		<Surface name="ZeroDisplacement_Y">
			<quad4 id="1">3,4,2,1</quad4>
			<quad4 id="2">10,4,3,9</quad4>
			<quad4 id="3">2,4,10,13</quad4>
			<quad4 id="4">10,9,16,15</quad4>
			<quad4 id="5">13,10,15,19</quad4>
			<quad4 id="6">13,19,22,21</quad4>
			<quad4 id="7">2,13,21,25</quad4>
			<quad4 id="8">1,2,25,27</quad4>
			<quad4 id="9">59,60,58,57</quad4>
			<quad4 id="10">66,60,59,65</quad4>
			<quad4 id="11">58,60,66,69</quad4>
			<quad4 id="12">66,65,72,71</quad4>
			<quad4 id="13">69,66,71,75</quad4>
			<quad4 id="14">69,75,22,19</quad4>
			<quad4 id="15">58,69,19,15</quad4>
			<quad4 id="16">57,58,15,16</quad4>
			<quad4 id="17">607,608,610,609</quad4>
			<quad4 id="18">609,611,612,607</quad4>
			<quad4 id="19">613,614,610,608</quad4>
			<quad4 id="20">615,613,608,607</quad4>
<!-- ... 592 like lines cut -->
		</Surface>
		<Surface name="Pressure1">
			<quad4 id="1">383,384,386,385</quad4>
			<quad4 id="2">387,383,385,388</quad4>
			<quad4 id="3">389,387,388,390</quad4>
			<quad4 id="4">391,389,390,392</quad4>
			<quad4 id="5">393,391,392,394</quad4>
			<quad4 id="6">395,393,394,396</quad4>
			<quad4 id="7">397,395,396,398</quad4>
			<quad4 id="8">399,397,398,400</quad4>
			<quad4 id="9">401,399,400,402</quad4>
			<quad4 id="10">403,401,402,404</quad4>
			<quad4 id="11">405,403,404,406</quad4>
			<quad4 id="12">407,405,406,408</quad4>
			<quad4 id="13">384,435,436,386</quad4>
			<quad4 id="14">385,386,581,580</quad4>
			<quad4 id="15">388,385,580,582</quad4>
			<quad4 id="16">390,388,582,583</quad4>
			<quad4 id="17">392,390,583,584</quad4>
			<quad4 id="18">394,392,584,585</quad4>
			<quad4 id="19">396,394,585,586</quad4>
			<quad4 id="20">398,396,586,587</quad4>
<!-- ... 58 like lines cut -->
		</Surface>
	</Mesh>
	<MeshDomains>
		<SolidDomain name="Part1" mat="Matrix"/>
		<SolidDomain name="Part2" mat="Inclusion"/>
		<SolidDomain name="Part3" mat="Matrix"/>
		<SolidDomain name="Part4" mat="Matrix"/>
		<SolidDomain name="Part5" mat="Matrix"/>
		<SolidDomain name="Part6" mat="Inclusion"/>
		<SolidDomain name="Part7" mat="Inclusion"/>
		<SolidDomain name="Part8" mat="Inclusion"/>
	</MeshDomains>
	<Step>
		<step id="1" name="Step01">
			<Control>
				<analysis>STATIC</analysis>
				<time_steps>15</time_steps>
				<step_size>0.1</step_size>
				<plot_zero_state>1</plot_zero_state>
				<plot_range>0,-1</plot_range>
				<plot_level>PLOT_MAJOR_ITRS</plot_level>
				<output_level>OUTPUT_MAJOR_ITRS</output_level>
				<plot_stride>1</plot_stride>
				<output_stride>1</output_stride>
				<adaptor_re_solve>1</adaptor_re_solve>
				<time_stepper type="default">
					<max_retries>10</max_retries>
					<opt_iter>50</opt_iter>
					<dtmin>0.0001</dtmin>
					<dtmax lc="2">4</dtmax>
					<aggressiveness>1</aggressiveness>
					<cutback>0.5</cutback>
					<dtforce>0</dtforce>
				</time_stepper>
				<solver type="solid">
					<symmetric_stiffness>non-symmetric</symmetric_stiffness>
					<equation_scheme>staggered</equation_scheme>
					<equation_order>default</equation_order>
					<optimize_bw>0</optimize_bw>
					<lstol>0.5</lstol>
					<lsmin>0.01</lsmin>
					<lsiter>5</lsiter>
					<ls_check_jacobians>0</ls_check_jacobians>
					<max_refs>50</max_refs>
					<check_zero_diagonal>0</check_zero_diagonal>
					<zero_diagonal_tol>0</zero_diagonal_tol>
					<force_partition>0</force_partition>
					<reform_each_time_step>1</reform_each_time_step>
					<reform_augment>0</reform_augment>
					<diverge_reform>1</diverge_reform>
					<min_residual>1e-20</min_residual>
					<max_residual>10</max_residual>
					<dtol>1e-16</dtol>
					<etol>1e-16</etol>
					<rtol>1e-16</rtol>
					<rhoi>-2</rhoi>
					<alpha>1</alpha>
					<beta>0.25</beta>
					<gamma>0.5</gamma>
					<logSolve>0</logSolve>
					<arc_length>0</arc_length>
					<arc_length_scale>0</arc_length_scale>
					<qn_method type="Broyden">
						<max_ups>10</max_ups>
						<max_buffer_size>0</max_buffer_size>
						<cycle_buffer>1</cycle_buffer>
						<cmax>100000</cmax>
					</qn_method>
				</solver>
			</Control>
			<Boundary>
				<bc name="ZeroDisplacement_Z" node_set="@surface:ZeroDisplacement_Z" type="zero displacement">
					<x_dof>0</x_dof>
					<y_dof>0</y_dof>
					<z_dof>1</z_dof>
				</bc>
				<bc name="ZeroDisplacement_Y" node_set="@surface:ZeroDisplacement_Y" type="zero displacement">
					<x_dof>0</x_dof>
					<y_dof>1</y_dof>
					<z_dof>0</z_dof>
				</bc>
				<bc name="ZeroDisplacement_X" node_set="@surface:ZeroDisplacement_X" type="zero displacement">
					<x_dof>1</x_dof>
					<y_dof>0</y_dof>
					<z_dof>0</z_dof>
				</bc>
			</Boundary>
			<Loads>
				<surface_load name="Pressure1" surface="Pressure1" type="pressure">
					<pressure lc="3">-1</pressure>
					<symmetric_stiffness>0</symmetric_stiffness>
					<linear>0</linear>
					<shell_bottom>0</shell_bottom>
				</surface_load>
			</Loads>
		</step>
	</Step>
	<LoadData>
		<load_controller id="1" name="LC1" type="loadcurve">
			<interpolate>STEP</interpolate>
			<extend>CONSTANT</extend>
			<points>
				<pt>1,1</pt>
				<pt>2,0</pt>
			</points>
		</load_controller>
		<load_controller id="2" name="LC2" type="loadcurve">
			<interpolate>STEP</interpolate>
			<extend>CONSTANT</extend>
			<points>
				<pt>0,0.1</pt>
				<pt>0.9998,0.1</pt>
				<pt>1,0.0001</pt>
				<pt>2,0.1</pt>
			</points>
		</load_controller>
		<load_controller id="3" name="LC3" type="loadcurve">
			<interpolate>LINEAR</interpolate>
			<extend>CONSTANT</extend>
			<points>
				<pt>0,0</pt>
				<pt>1,0.03</pt>
				<pt>1.5,0.15</pt>
				<pt>2,0</pt>
			</points>
		</load_controller>
	</LoadData>
	<Output>
		<plotfile type="febio">
			<var type="displacement"/>
			<var type="stress"/>
			<var type="relative volume"/>
			<var type="nodal stress"/>
			<var type="Lagrange strain"/>
			<var type="reaction forces"/>
			<var type="deformation gradient"/>
		</plotfile>
		<logfile>
			<node_data data="x;y;z;ux;uy;uz"/>
			<element_data data="sx;sy;sz;sxz;syz;sxy"/>
			<element_data data="Fxx;Fxy;Fxz;Fyx;Fyy;Fyz;Fzx;Fzy;Fzz;Gxx;Gxy;Gxz;Gyx;Gyy;Gyz;Gzx;Gzy;Gzz"/>
		</logfile>
	</Output>
</febio_spec>
